Circuit: * D:\1.Facultate\Deea\Proiect-Seminar\Proiect.asc

Fatal Error: Unknown subcircuit called in:
   xu1 n004 n002 n001 n006 n003 opamp2
