Circuit: * D:\1.Facultate\Deea\R4\Amplificato_Neinversor_AO.asc

Direct Newton iteration for .op point succeeded.

Date: Sun Jan 08 01:24:41 2023
Total elapsed time: 0.026 seconds.

tnom = 27
temp = 27
method = modified trap
totiter = 2085
traniter = 2082
tranpoints = 1042
accept = 1042
rejected = 0
matrix size = 9
fillins = 1
solver = Normal
Matrix Compiler1: 314 bytes object code size  0.1/0.1/[0.1]
Matrix Compiler2: 641 bytes object code size  0.1/0.1/[0.1]

