Circuit: * D:\1.Facultate\Deea\R4\Amplificator_Inversor_AO.asc

Direct Newton iteration for .op point succeeded.

Date: Sun Jan 08 01:40:53 2023
Total elapsed time: 0.051 seconds.

tnom = 27
temp = 27
method = modified trap
totiter = 2085
traniter = 2082
tranpoints = 1042
accept = 1042
rejected = 0
matrix size = 9
fillins = 1
solver = Normal
Matrix Compiler1: 332 bytes object code size  0.3/0.1/[0.1]
Matrix Compiler2: 635 bytes object code size  0.2/0.1/[0.1]

