Circuit: * D:\1.Facultate\Deea\R4\Draft1.asc

Direct Newton iteration for .op point succeeded.
.step cs=1e-010
.step cs=2e-010
.step cs=3e-010
.step cs=4e-010
.step cs=5e-010
.step cs=6e-010
.step cs=7e-010
.step cs=8e-010
.step cs=9e-010
.step cs=1e-009

Date: Sun Apr 23 20:59:52 2023
Total elapsed time: 0.448 seconds.

tnom = 27
temp = 27
method = modified trap
totiter = 3490
traniter = 3484
tranpoints = 1540
accept = 1390
rejected = 150
matrix size = 9
fillins = 0
solver = Normal
Matrix Compiler1:      26 opcodes  0.1/[0.1]/0.8
Matrix Compiler2: 667 bytes object code size  0.1/0.1/[0.1]

