Circuit: * D:\1.Facultate\Deea\Tema1_Ionescu_Cristina_323CC.asc


Date: Wed Nov 09 23:40:47 2022
Total elapsed time: 0.047 seconds.

tnom = 27
temp = 27
method = trap
totiter = 79
traniter = 0
tranpoints = 0
accept = 0
rejected = 0
matrix size = 4
fillins = 0
solver = Normal
Matrix Compiler1: 118 bytes object code size
Matrix Compiler2: 242 bytes object code size
