Circuit: * D:\1.Facultate\Deea\Tema3\CC.asc

Direct Newton iteration for .op point succeeded.
Changing Tseed to 9.76562e-010
Changing Tseed to 9.76562e-012
Changing Tseed to 9.76562e-009

Date: Tue Dec 13 00:17:42 2022
Total elapsed time: 0.072 seconds.

tnom = 27
temp = 27
method = modified trap
totiter = 2110
traniter = 2104
tranpoints = 1038
accept = 1035
rejected = 0
matrix size = 9
fillins = 0
solver = Normal
Matrix Compiler1:      23 opcodes  0.2/[0.1]/0.2
Matrix Compiler2: 667 bytes object code size  0.2/0.2/[0.2]

