Circuit: * D:\1.Facultate\Deea\Tema3\EC.asc

Direct Newton iteration for .op point succeeded.
Changing Tseed to 9.76562e-010
Changing Tseed to 9.76562e-012
Changing Tseed to 9.76562e-009

Date: Mon Dec 12 23:59:39 2022
Total elapsed time: 0.091 seconds.

tnom = 27
temp = 27
method = modified trap
totiter = 2107
traniter = 2101
tranpoints = 1038
accept = 1035
rejected = 0
matrix size = 9
fillins = 0
solver = Normal
Matrix Compiler1:      23 opcodes  0.2/[0.1]/0.2
Matrix Compiler2: off  [0.2]/0.2/0.2

