Circuit: * D:\1.Facultate\Deea\Proiect-Seminar\Poze\Draft1.asc

Fatal Error: Unknown subcircuit called in:
   xu1 n003 0 n001 opamp aol=100k gbw=10meg
